resultados/CN12/cn15_120_volts.csv
Bus, BasekV, Node1, Magnitude1, Angle1, pu1, Node2, Magnitude2, Angle2, pu2, Node3, Magnitude3, Angle3, pu3
"SCN_CN15_9199_CEI77A_ATV", 13.8, 1,    7930.72,   -0.3,   0.99539, 2,    7930.72, -120.3,   0.99539, 3,    7930.72,  119.7,   0.99539
"SCN_CN15_9153_CEI109", 13.8, 1,    6064.32,   -4.5,   0.76114, 2,    6064.31, -124.5,   0.76114, 3,    6064.31,  115.5,   0.76114
"SCN_CN15_9154_CEI109", 13.8, 1,    6064.35,   -4.5,   0.76114, 2,    6064.34, -124.5,   0.76114, 3,    6064.34,  115.5,   0.76114
"SCN_CN15_9098_CEI131_ATV", 13.8, 1,    6145.26,   -4.2,    0.7713, 2,    6145.25, -124.2,    0.7713, 3,    6145.25,  115.8,    0.7713
"SCN_CN15_9097_CEI131_ATV", 13.8, 1,    6145.26,   -4.2,    0.7713, 2,    6145.25, -124.2,    0.7713, 3,    6145.25,  115.8,    0.7713
"SCN_CN15_9079_CEI201_ATV", 13.8, 1,    6235.67,   -3.8,   0.78264, 2,    6235.66, -123.8,   0.78264, 3,    6235.66,  116.2,   0.78264
"SCN_CN15_9080_CEI201_ATV", 13.8, 1,    6235.66,   -3.8,   0.78264, 2,    6235.65, -123.8,   0.78264, 3,    6235.65,  116.2,   0.78264
"SCN_CN15_9356_CEI109", 13.8, 1,    6037.69,   -4.6,    0.7578, 2,    6037.68, -124.6,   0.75779, 3,    6037.68,  115.4,   0.75779
"SCN_CN15_9349_CEI109", 13.8, 1,    6038.15,   -4.6,   0.75785, 2,    6038.14, -124.6,   0.75785, 3,    6038.14,  115.4,   0.75785
"SCN_CN15_9039_CEI201_ATV", 13.8, 1,    6038.37,   -4.6,   0.75788, 2,    6038.36, -124.6,   0.75788, 3,    6038.37,  115.4,   0.75788
"SCN_CN15_9021_CEI201_ATV", 13.8, 1,    6034.19,   -4.6,   0.75736, 2,    6034.18, -124.6,   0.75736, 3,    6034.18,  115.4,   0.75736
"SCN_CN15_9022_CEI201_ATV", 13.8, 1,    6034.37,   -4.6,   0.75738, 2,    6034.36, -124.6,   0.75738, 3,    6034.36,  115.4,   0.75738
"SCN_CN15_9274_CEI109", 13.8, 1,    6103.54,   -4.4,   0.76606, 2,    6103.53, -124.4,   0.76606, 3,    6103.53,  115.6,   0.76606
"SCN_CN15_9275_CEI109", 13.8, 1,    6102.24,   -4.4,    0.7659, 2,    6102.23, -124.4,    0.7659, 3,    6102.23,  115.6,    0.7659
"SCN_CN15_9269_CEI109", 13.8, 1,    6104.82,   -4.4,   0.76622, 2,    6104.81, -124.4,   0.76622, 3,    6104.81,  115.6,   0.76622
"SCN_CN15_9053_CEI201_ATV", 13.8, 1,    6040.43,   -4.6,   0.75814, 2,    6040.42, -124.6,   0.75814, 3,    6040.42,  115.4,   0.75814
"SCN_CN15_9485_CEI109", 13.8, 1,    6040.44,   -4.6,   0.75814, 2,    6040.43, -124.6,   0.75814, 3,    6040.44,  115.4,   0.75814
"SCN_CN15_421165_CEI", 13.8, 1,    6247.71,   -3.7,   0.78416, 2,     6247.7, -123.7,   0.78416, 3,     6247.7,  116.3,   0.78416
"SCN_CN15_421166_CEI", 13.8, 1,    6248.39,   -3.7,   0.78424, 2,    6248.38, -123.7,   0.78424, 3,    6248.38,  116.3,   0.78424
"SCN_CN15_9143_CEI69B", 13.8, 1,    6248.97,   -3.7,   0.78431, 2,    6248.97, -123.7,   0.78431, 3,    6248.97,  116.3,   0.78431
"SCN_CN15_9141_CEI201_ATV", 13.8, 1,    6247.71,   -3.7,   0.78416, 2,     6247.7, -123.7,   0.78416, 3,     6247.7,  116.3,   0.78416
"SCN_CN15_9129_CEI201_ATV", 13.8, 1,    6253.73,   -3.7,   0.78491, 2,    6253.72, -123.7,   0.78491, 3,    6253.72,  116.3,   0.78491
"SCN_CN15_9008_CEI220_ATV", 13.8, 1,    6253.73,   -3.7,   0.78491, 2,    6253.72, -123.7,   0.78491, 3,    6253.72,  116.3,   0.78491
"SCN_CN15_421168_CEI", 13.8, 1,    6138.32,   -4.2,   0.77043, 2,    6138.31, -124.2,   0.77043, 3,    6138.31,  115.8,   0.77043
"SCN_CN15_9015_CEI109", 13.8, 1,    6138.32,   -4.2,   0.77043, 2,    6138.31, -124.2,   0.77043, 3,    6138.31,  115.8,   0.77043
"SCN_CN15_421185_CEI", 13.8, 1,    6171.15,   -4.1,   0.77455, 2,    6171.14, -124.1,   0.77455, 3,    6171.14,  115.9,   0.77455
"SCN_CN15_9162_CEI220_ATV_S", 13.8, 1,    6169.45,   -4.1,   0.77433, 2,    6169.44, -124.1,   0.77433, 3,    6169.44,  115.9,   0.77433
"SCN_CN15_421186_CEI", 13.8, 1,    6172.42,   -4.1,   0.77471, 2,    6172.41, -124.1,   0.77471, 3,    6172.41,  115.9,   0.77471
"SCN_CN15_421187_CEI", 13.8, 1,    6173.91,   -4.1,   0.77489, 2,     6173.9, -124.1,   0.77489, 3,     6173.9,  115.9,   0.77489
"SCN_CN15_421169_CEI", 13.8, 1,    6176.03,   -4.1,   0.77516, 2,    6176.02, -124.1,   0.77516, 3,    6176.02,  115.9,   0.77516
"SCN_CN15_9012_CEI120", 13.8, 1,    6174.77,   -4.1,     0.775, 2,    6174.76, -124.1,     0.775, 3,    6174.77,  115.9,     0.775
"SCN_CN15_421170_CEI", 13.8, 1,    6185.94,   -4.1,    0.7764, 2,    6185.93, -124.1,    0.7764, 3,    6185.93,  115.9,    0.7764
"SCN_CN15_421171_CEI", 13.8, 1,    6185.94,   -4.1,    0.7764, 2,    6185.93, -124.1,    0.7764, 3,    6185.93,  115.9,    0.7764
"SCN_CN15_421172_CEI", 13.8, 1,    6185.94,   -4.1,    0.7764, 2,    6185.93, -124.1,    0.7764, 3,    6185.93,  115.9,    0.7764
"SCN_CN15_421173_CEI", 13.8, 1,    6185.94,   -4.1,    0.7764, 2,    6185.93, -124.1,    0.7764, 3,    6185.93,  115.9,    0.7764
"SCN_CN15_421174_CEI", 13.8, 1,    6185.94,   -4.1,    0.7764, 2,    6185.93, -124.1,    0.7764, 3,    6185.93,  115.9,    0.7764
"SCN_CN15_421175_CEI", 13.8, 1,    6194.58,   -4.0,   0.77749, 2,    6194.57, -124.0,   0.77749, 3,    6194.58,  116.0,   0.77749
"SCN_CN15_421176_CEI", 13.8, 1,    6194.58,   -4.0,   0.77749, 2,    6194.57, -124.0,   0.77749, 3,    6194.58,  116.0,   0.77749
"SCN_CN15_421177_CEI", 13.8, 1,    6194.58,   -4.0,   0.77749, 2,    6194.57, -124.0,   0.77749, 3,    6194.58,  116.0,   0.77749
"SCN_CN15_421178_CEI", 13.8, 1,    6194.58,   -4.0,   0.77749, 2,    6194.57, -124.0,   0.77749, 3,    6194.58,  116.0,   0.77749
"SCN_CN15_421179_CEI", 13.8, 1,    6212.89,   -4.0,   0.77979, 2,    6212.88, -124.0,   0.77978, 3,    6212.88,  116.0,   0.77978
"SCN_CN15_9047_CEI130_ATV", 13.8, 1,    6238.43,   -3.9,   0.78299, 2,    6238.42, -123.9,   0.78299, 3,    6238.42,  116.1,   0.78299
"SCN_CN15_421180_CEI", 13.8, 1,    6238.43,   -3.9,   0.78299, 2,    6238.42, -123.9,   0.78299, 3,    6238.42,  116.1,   0.78299
"SCN_CN15_9037_CEI130_ATV", 13.8, 1,    6282.36,   -3.7,   0.78851, 2,    6282.36, -123.7,    0.7885, 3,    6282.36,  116.3,    0.7885
"SCN_CN15_9047_CEI130_ATV_S", 13.8, 1,    6238.43,   -3.9,   0.78299, 2,    6238.42, -123.9,   0.78299, 3,    6238.42,  116.1,   0.78299
"SCN_CN15_421181_CEI", 13.8, 1,     6291.7,   -3.7,   0.78968, 2,    6291.69, -123.7,   0.78968, 3,    6291.69,  116.3,   0.78968
"SCN_CN15_9040_CEI130_ATV", 13.8, 1,     6291.7,   -3.7,   0.78968, 2,    6291.69, -123.7,   0.78968, 3,    6291.69,  116.3,   0.78968
"SCN_CN15_421182_CEI", 13.8, 1,     6291.7,   -3.7,   0.78968, 2,    6291.69, -123.7,   0.78968, 3,    6291.69,  116.3,   0.78968
"SCN_CN15_421183_CEI", 13.8, 1,     6291.7,   -3.7,   0.78968, 2,    6291.69, -123.7,   0.78968, 3,    6291.69,  116.3,   0.78968
"SCN_CN15_421184_CEI", 13.8, 1,     6291.7,   -3.7,   0.78968, 2,    6291.69, -123.7,   0.78968, 3,    6291.69,  116.3,   0.78968
"SCN_CN15_421195_CEI", 13.8, 1,    6334.31,   -3.5,   0.79502, 2,     6334.3, -123.5,   0.79502, 3,     6334.3,  116.5,   0.79502
"SCN_CN15_9022_CEI250_ATV", 13.8, 1,    6332.48,   -3.5,    0.7948, 2,    6332.47, -123.5,   0.79479, 3,    6332.48,  116.5,   0.79479
"SCN_CN15_421196_CEI", 13.8, 1,    6336.89,   -3.5,   0.79535, 2,    6336.88, -123.5,   0.79535, 3,    6336.88,  116.5,   0.79535
"SCN_CN15_9025_CEI130_ATV", 13.8, 1,       6339,   -3.5,   0.79561, 2,    6338.99, -123.5,   0.79561, 3,    6338.99,  116.5,   0.79561
"SCN_CN15_421197_CEI", 13.8, 1,    6238.13,   -3.9,   0.78295, 2,    6238.12, -123.9,   0.78295, 3,    6238.12,  116.1,   0.78295
"SCN_CN15_9004_CEI160_ATV", 13.8, 1,    6238.13,   -3.9,   0.78295, 2,    6238.12, -123.9,   0.78295, 3,    6238.12,  116.1,   0.78295
"SCN_CN15_9005_CEI160_ATV", 13.8, 1,    6238.13,   -3.9,   0.78295, 2,    6238.12, -123.9,   0.78295, 3,    6238.12,  116.1,   0.78295
"SCN_CN15_9017_CEI130A_ATV", 13.8, 1,    6518.35,   -3.1,   0.81812, 2,    6518.34, -123.1,   0.81812, 3,    6518.34,  116.9,   0.81812
"SCN_CN15_421206_CEI", 13.8, 1,    6518.35,   -3.1,   0.81812, 2,    6518.34, -123.1,   0.81812, 3,    6518.34,  116.9,   0.81812
"SCN_CN15_9034_CEI130A_ATV", 13.8, 1,    6517.16,   -3.1,   0.81797, 2,    6517.15, -123.1,   0.81797, 3,    6517.15,  116.9,   0.81797
"SCN_CN15_421207_CEI", 13.8, 1,    6517.16,   -3.1,   0.81797, 2,    6517.15, -123.1,   0.81797, 3,    6517.15,  116.9,   0.81797
"SCN_CN15_421208_CEI", 13.8, 1,    6517.16,   -3.1,   0.81797, 2,    6517.15, -123.1,   0.81797, 3,    6517.15,  116.9,   0.81797
"SCN_CN15_421209_CEI", 13.8, 1,    6517.16,   -3.1,   0.81797, 2,    6517.15, -123.1,   0.81797, 3,    6517.15,  116.9,   0.81797
"SCN_CN15_421210_CEI", 13.8, 1,    6517.16,   -3.1,   0.81797, 2,    6517.15, -123.1,   0.81797, 3,    6517.15,  116.9,   0.81797
"SCN_CN15_421211_CEI", 13.8, 1,    6517.16,   -3.1,   0.81797, 2,    6517.15, -123.1,   0.81797, 3,    6517.15,  116.9,   0.81797
"SCN_CN15_421212_CEI", 13.8, 1,    6517.16,   -3.1,   0.81797, 2,    6517.15, -123.1,   0.81797, 3,    6517.15,  116.9,   0.81797
"SCN_CN15_9040_CEI130A_ATV", 13.8, 1,    6517.07,   -3.1,   0.81796, 2,    6517.06, -123.1,   0.81796, 3,    6517.06,  116.9,   0.81796
"SCN_CN15_421213_CEI", 13.8, 1,    6517.07,   -3.1,   0.81796, 2,    6517.06, -123.1,   0.81796, 3,    6517.06,  116.9,   0.81796
"SCN_CN15_421218_CEI", 13.8, 1,    6523.21,   -3.1,   0.81873, 2,     6523.2, -123.1,   0.81873, 3,     6523.2,  116.9,   0.81873
"SCN_CN15_9353_CEI065", 13.8, 1,    6523.21,   -3.1,   0.81873, 2,     6523.2, -123.1,   0.81873, 3,     6523.2,  116.9,   0.81873
"SCN_CN15_421219_CEI", 13.8, 1,    6523.21,   -3.1,   0.81873, 2,     6523.2, -123.1,   0.81873, 3,     6523.2,  116.9,   0.81873
"CN_ALCN15", 13.8, 1,    6523.21,   -3.1,   0.81873, 2,     6523.2, -123.1,   0.81873, 3,     6523.2,  116.9,   0.81873
"SCN_CN15_421227_CEI", 13.8, 1,    6133.79,   -3.9,   0.76986, 2,    6133.78, -123.9,   0.76986, 3,    6133.78,  116.1,   0.76986
"SCN_CN15_9006_CEIRJ013_ATV", 13.8, 1,    6133.79,   -3.9,   0.76986, 2,    6133.78, -123.9,   0.76986, 3,    6133.78,  116.1,   0.76986
"SCN_CN15_9067_CEIRJ006_ATV", 13.8, 1,    6136.84,   -3.9,   0.77024, 2,    6136.83, -123.9,   0.77024, 3,    6136.83,  116.1,   0.77024
"SCN_CN15_9064_CEIRJ006_ATV", 13.8, 1,    6136.84,   -3.9,   0.77024, 2,    6136.83, -123.9,   0.77024, 3,    6136.83,  116.1,   0.77024
"SCN_CN15_421241_CEI", 13.8, 1,    6136.84,   -3.9,   0.77024, 2,    6136.83, -123.9,   0.77024, 3,    6136.83,  116.1,   0.77024
"SCN_CN15_9068_CEIRJ006_ATV", 13.8, 1,    6136.84,   -3.9,   0.77024, 2,    6136.83, -123.9,   0.77024, 3,    6136.83,  116.1,   0.77024
"SCN_CN15_9050_CEI160_ATV", 13.8, 1,    7164.95,   -1.9,   0.89928, 2,    7164.95, -121.9,   0.89928, 3,    7164.95,  118.1,   0.89928
"SCN_CN15_9014_CEI077_ATV", 13.8, 1,    7165.67,   -1.9,   0.89937, 2,    7165.67, -121.9,   0.89937, 3,    7165.67,  118.1,   0.89937
"SCN_CN15_9052_CEI160_ATV", 13.8, 1,    7164.95,   -1.9,   0.89928, 2,    7164.95, -121.9,   0.89928, 3,    7164.95,  118.1,   0.89928
"SCN_CN15_421244_CEI", 13.8, 1,    7164.28,   -1.9,    0.8992, 2,    7164.27, -121.9,   0.89919, 3,    7164.27,  118.1,   0.89919
"SCN_CN15_421245_CEI", 13.8, 1,    7163.58,   -1.9,   0.89911, 2,    7163.57, -121.9,   0.89911, 3,    7163.57,  118.1,   0.89911
"SCN_CN15_9005_CEIRJ012_ATV_S", 13.8, 1,     7162.9,   -1.9,   0.89902, 2,     7162.9, -121.9,   0.89902, 3,     7162.9,  118.1,   0.89902
"SCN_CN15_9024_CEI167_ATV", 13.8, 1,    7197.41,   -1.8,   0.90335, 2,    7197.41, -121.8,   0.90335, 3,    7197.41,  118.2,   0.90335
"SCN_CN15_9025_CEI167_ATV", 13.8, 1,    7197.41,   -1.8,   0.90335, 2,    7197.41, -121.8,   0.90335, 3,    7197.41,  118.2,   0.90335
"SCN_CN15_9002_CEIRJ013_ATV", 13.8, 1,    7197.41,   -1.8,   0.90335, 2,    7197.41, -121.8,   0.90335, 3,    7197.41,  118.2,   0.90335
"SCN_CN15_9037_CEI77A_ATV", 13.8, 1,    7211.96,   -1.8,   0.90518, 2,    7211.96, -121.8,   0.90518, 3,    7211.96,  118.2,   0.90518
"SCN_CN15_9035_CEIRJ006_ATV", 13.8, 1,    7211.96,   -1.8,   0.90518, 2,    7211.96, -121.8,   0.90518, 3,    7211.96,  118.2,   0.90518
"SCN_CN15_9036_CEIRJ006_ATV", 13.8, 1,    7211.96,   -1.8,   0.90518, 2,    7211.96, -121.8,   0.90518, 3,    7211.96,  118.2,   0.90518
"SCN_CN15_9105_CEI201_ATV", 13.8, 1,    6234.79,   -3.8,   0.78253, 2,    6234.78, -123.8,   0.78253, 3,    6234.78,  116.2,   0.78253
"SCN_CN15_9102_CEI201_ATV_S", 13.8, 1,    6234.69,   -3.8,   0.78252, 2,    6234.68, -123.8,   0.78252, 3,    6234.68,  116.2,   0.78252
"SCN_CN15_9017_CEI201_ATV", 13.8, 1,    6033.57,   -4.6,   0.75728, 2,    6033.56, -124.6,   0.75728, 3,    6033.56,  115.4,   0.75728
"SCN_CN15_9019_CEI201_ATV", 13.8, 1,     6033.7,   -4.6,    0.7573, 2,    6033.69, -124.6,   0.75729, 3,    6033.69,  115.4,   0.75729
"SCN_CN15_9019_CEI134C_ATV", 13.8, 1,    6096.46,   -4.3,   0.76517, 2,    6096.45, -124.3,   0.76517, 3,    6096.45,  115.7,   0.76517
"SCN_CN15_9020_CEI134C_ATV", 13.8, 1,    6096.44,   -4.3,   0.76517, 2,    6096.43, -124.3,   0.76517, 3,    6096.43,  115.7,   0.76517
"SCN_CN15_9022_CEI134C_ATV", 13.8, 1,    6096.25,   -4.3,   0.76515, 2,    6096.24, -124.3,   0.76514, 3,    6096.24,  115.7,   0.76515
"SCN_CN15_9021_CEI134C_ATV", 13.8, 1,     6096.2,   -4.3,   0.76514, 2,    6096.19, -124.3,   0.76514, 3,     6096.2,  115.7,   0.76514
"SCN_CN15_9023_CEI134C_ATV", 13.8, 1,    6096.17,   -4.3,   0.76514, 2,    6096.16, -124.3,   0.76513, 3,    6096.16,  115.7,   0.76514
"SCN_CN15_9034_CEI134C_ATV", 13.8, 1,    6096.12,   -4.3,   0.76513, 2,    6096.11, -124.3,   0.76513, 3,    6096.11,  115.7,   0.76513
"SCN_CN15_9035_CEI134C_ATV", 13.8, 1,    6096.07,   -4.3,   0.76512, 2,    6096.06, -124.3,   0.76512, 3,    6096.06,  115.7,   0.76512
"SCN_CN15_9036_CEI134C_ATV", 13.8, 1,    6096.03,   -4.3,   0.76512, 2,    6096.02, -124.3,   0.76512, 3,    6096.02,  115.7,   0.76512
"SCN_CN15_9024_CEI134B_ATV", 13.8, 1,    6099.75,   -4.3,   0.76558, 2,    6099.74, -124.3,   0.76558, 3,    6099.74,  115.7,   0.76558
"SCN_CN15_9027_CEI134B_ATV", 13.8, 1,    6099.72,   -4.3,   0.76558, 2,    6099.71, -124.3,   0.76558, 3,    6099.71,  115.7,   0.76558
"SCN_CN15_9026_CEI134B_ATV", 13.8, 1,     6099.7,   -4.3,   0.76558, 2,    6099.69, -124.3,   0.76558, 3,     6099.7,  115.7,   0.76558
"SCN_CN15_9028_CEI134B_ATV", 13.8, 1,    6099.69,   -4.3,   0.76558, 2,    6099.68, -124.3,   0.76558, 3,    6099.68,  115.7,   0.76558
"SCN_CN15_9011_CEI134_ATV", 13.8, 1,    6116.21,   -4.3,   0.76765, 2,     6116.2, -124.3,   0.76765, 3,     6116.2,  115.7,   0.76765
"SCN_CN15_9009_CEI134A_ATV", 13.8, 1,    6115.47,   -4.3,   0.76756, 2,    6115.46, -124.3,   0.76756, 3,    6115.46,  115.7,   0.76756
"SCN_CN15_9002_CEI134_ATV", 13.8, 1,    6118.01,   -4.3,   0.76788, 2,       6118, -124.3,   0.76788, 3,    6118.01,  115.7,   0.76788
"SCN_CN15_9003_CEI134_ATV", 13.8, 1,    6118.04,   -4.3,   0.76788, 2,    6118.03, -124.3,   0.76788, 3,    6118.03,  115.7,   0.76788
"SCN_CN15_9101_CEI109", 13.8, 1,    6120.61,   -4.3,    0.7682, 2,     6120.6, -124.3,    0.7682, 3,     6120.6,  115.7,    0.7682
"SCN_CN15_9102_CEI109", 13.8, 1,    6120.57,   -4.3,    0.7682, 2,    6120.56, -124.3,    0.7682, 3,    6120.56,  115.7,    0.7682
"SCN_CN15_9103_CEI109", 13.8, 1,    6120.54,   -4.3,   0.76819, 2,    6120.53, -124.3,   0.76819, 3,    6120.53,  115.7,   0.76819
"SCN_CN15_9104_CEI109", 13.8, 1,    6120.51,   -4.3,   0.76819, 2,     6120.5, -124.3,   0.76819, 3,     6120.5,  115.7,   0.76819
"SCN_CN15_9105_CEI109", 13.8, 1,    6120.48,   -4.3,   0.76819, 2,    6120.47, -124.3,   0.76819, 3,    6120.48,  115.7,   0.76819
"SCN_CN15_9106_CEI109", 13.8, 1,    6120.46,   -4.3,   0.76818, 2,    6120.45, -124.3,   0.76818, 3,    6120.45,  115.7,   0.76818
"SCN_CN15_9108_CEI109", 13.8, 1,    6120.43,   -4.3,   0.76818, 2,    6120.42, -124.3,   0.76818, 3,    6120.42,  115.7,   0.76818
"SCN_CN15_9109_CEI109", 13.8, 1,     6120.4,   -4.3,   0.76818, 2,    6120.39, -124.3,   0.76818, 3,    6120.39,  115.7,   0.76818
"SCN_CN15_9110_CEI109", 13.8, 1,    6120.37,   -4.3,   0.76817, 2,    6120.36, -124.3,   0.76817, 3,    6120.36,  115.7,   0.76817
"SCN_CN15_9111_CEI109", 13.8, 1,    6120.34,   -4.3,   0.76817, 2,    6120.33, -124.3,   0.76817, 3,    6120.33,  115.7,   0.76817
"SCN_CN15_9112_CEI109", 13.8, 1,    6120.33,   -4.3,   0.76817, 2,    6120.32, -124.3,   0.76817, 3,    6120.32,  115.7,   0.76817
"SCN_CN15_9113_CEI109", 13.8, 1,     6120.3,   -4.3,   0.76816, 2,    6120.29, -124.3,   0.76816, 3,    6120.29,  115.7,   0.76816
"SCN_CN15_9114_CEI109", 13.8, 1,    6120.28,   -4.3,   0.76816, 2,    6120.27, -124.3,   0.76816, 3,    6120.27,  115.7,   0.76816
"SCN_CN15_9115_CEI109", 13.8, 1,    6120.23,   -4.3,   0.76816, 2,    6120.22, -124.3,   0.76815, 3,    6120.22,  115.7,   0.76815
"SCN_CN15_9116_CEI109", 13.8, 1,     6120.2,   -4.3,   0.76815, 2,    6120.19, -124.3,   0.76815, 3,    6120.19,  115.7,   0.76815
"SCN_CN15_9010_CEI120", 13.8, 1,    6172.53,   -4.1,   0.77472, 2,    6172.52, -124.1,   0.77472, 3,    6172.53,  115.9,   0.77472
"SCN_CN15_9011_CEI120", 13.8, 1,    6174.33,   -4.1,   0.77495, 2,    6174.32, -124.1,   0.77494, 3,    6174.32,  115.9,   0.77494
"SCN_CN15_9045_CEI130_ATV", 13.8, 1,    6238.34,   -3.9,   0.78298, 2,    6238.33, -123.9,   0.78298, 3,    6238.33,  116.1,   0.78298
"SCN_CN15_9044_CEI130_ATV", 13.8, 1,    6238.33,   -3.9,   0.78298, 2,    6238.32, -123.9,   0.78298, 3,    6238.33,  116.1,   0.78298
"SCN_CN15_9043_CEI130_ATV", 13.8, 1,    6238.27,   -3.9,   0.78297, 2,    6238.26, -123.9,   0.78297, 3,    6238.26,  116.1,   0.78297
"SCN_CN15_9014_CEI69B", 13.8, 1,    6352.69,   -3.5,   0.79733, 2,    6352.69, -123.5,   0.79733, 3,    6352.69,  116.5,   0.79733
"SCN_CN15_9015_CEI69B", 13.8, 1,    6353.37,   -3.5,   0.79742, 2,    6353.36, -123.5,   0.79742, 3,    6353.36,  116.5,   0.79742
"SCN_CN15_9559_CEI109", 13.8, 1,    6111.94,   -4.3,   0.76712, 2,    6111.93, -124.3,   0.76711, 3,    6111.93,  115.7,   0.76711
"SCN_CN15_9570_CEI109", 13.8, 1,    6111.94,   -4.3,   0.76711, 2,    6111.93, -124.3,   0.76711, 3,    6111.93,  115.7,   0.76711
"SCN_CN15_9558_CEI109", 13.8, 1,    6116.84,   -4.3,   0.76773, 2,    6116.83, -124.3,   0.76773, 3,    6116.84,  115.7,   0.76773
"SCN_CN15_9560_CEI109", 13.8, 1,    6108.33,   -4.4,   0.76666, 2,    6108.32, -124.4,   0.76666, 3,    6108.32,  115.6,   0.76666
"SCN_CN15_9555_CEI109", 13.8, 1,    6122.48,   -4.3,   0.76844, 2,    6122.47, -124.3,   0.76844, 3,    6122.47,  115.7,   0.76844
"SCN_CN15_9552_CEI109", 13.8, 1,    6126.63,   -4.3,   0.76896, 2,    6126.62, -124.3,   0.76896, 3,    6126.62,  115.7,   0.76896
"SCN_CN15_9550_CEI109", 13.8, 1,    6130.26,   -4.3,   0.76941, 2,    6130.25, -124.3,   0.76941, 3,    6130.25,  115.7,   0.76941
"SCN_CN15_9548_CEI109", 13.8, 1,    6133.74,   -4.3,   0.76985, 2,    6133.73, -124.3,   0.76985, 3,    6133.73,  115.7,   0.76985
"SCN_CN15_9017_CEI109", 13.8, 1,    6138.48,   -4.2,   0.77045, 2,    6138.47, -124.2,   0.77045, 3,    6138.47,  115.8,   0.77045
"SCN_CN15_9548_CEI109_S", 13.8, 1,    6133.74,   -4.3,   0.76985, 2,    6133.73, -124.3,   0.76985, 3,    6133.73,  115.7,   0.76985
"SCN_CN15_9016_CEI109", 13.8, 1,    6138.38,   -4.2,   0.77043, 2,    6138.37, -124.2,   0.77043, 3,    6138.37,  115.8,   0.77043
"SCN_CN15_9014_CEI109", 13.8, 1,    6138.23,   -4.2,   0.77042, 2,    6138.22, -124.2,   0.77041, 3,    6138.23,  115.8,   0.77041
"SCN_CN15_9013_CEI109", 13.8, 1,    6138.17,   -4.2,   0.77041, 2,    6138.16, -124.2,   0.77041, 3,    6138.16,  115.8,   0.77041
"SCN_CN15_9012_CEI109", 13.8, 1,    6138.07,   -4.2,   0.77039, 2,    6138.06, -124.2,   0.77039, 3,    6138.06,  115.8,   0.77039
"SCN_CN15_9008_CEI109", 13.8, 1,    6137.99,   -4.2,   0.77039, 2,    6137.98, -124.2,   0.77038, 3,    6137.99,  115.8,   0.77038
"SCN_CN15_9009_CEI109", 13.8, 1,    6137.95,   -4.2,   0.77038, 2,    6137.94, -124.2,   0.77038, 3,    6137.94,  115.8,   0.77038
"SCN_CN15_9010_CEI109", 13.8, 1,    6137.92,   -4.2,   0.77038, 2,    6137.91, -124.2,   0.77037, 3,    6137.91,  115.8,   0.77037
"SCN_CN15_9011_CEI109", 13.8, 1,    6137.88,   -4.2,   0.77037, 2,    6137.87, -124.2,   0.77037, 3,    6137.87,  115.8,   0.77037
"SCN_CN15_9547_CEI109", 13.8, 1,    6133.67,   -4.3,   0.76984, 2,    6133.66, -124.3,   0.76984, 3,    6133.67,  115.7,   0.76984
"SCN_CN15_9007_CEI109", 13.8, 1,    6137.96,   -4.2,   0.77038, 2,    6137.95, -124.2,   0.77038, 3,    6137.95,  115.8,   0.77038
"SCN_CN15_9006_CEI109", 13.8, 1,    6137.94,   -4.2,   0.77038, 2,    6137.93, -124.2,   0.77038, 3,    6137.93,  115.8,   0.77038
"SCN_CN15_9005_CEI109", 13.8, 1,    6137.92,   -4.2,   0.77038, 2,    6137.91, -124.2,   0.77037, 3,    6137.91,  115.8,   0.77037
"SCN_CN15_9004_CEI109", 13.8, 1,     6137.9,   -4.2,   0.77037, 2,    6137.89, -124.2,   0.77037, 3,    6137.89,  115.8,   0.77037
"SCN_CN15_9002_CEI109", 13.8, 1,    6254.14,   -3.7,   0.78496, 2,    6254.13, -123.7,   0.78496, 3,    6254.13,  116.3,   0.78496
"SCN_CN15_9003_CEI109", 13.8, 1,    6254.14,   -3.7,   0.78496, 2,    6254.13, -123.7,   0.78496, 3,    6254.13,  116.3,   0.78496
"SCN_CN15_9001_CEI109", 13.8, 1,    6254.14,   -3.7,   0.78496, 2,    6254.13, -123.7,   0.78496, 3,    6254.13,  116.3,   0.78496
"SCN_CN15_9122_CEI201_ATV", 13.8, 1,    6254.14,   -3.7,   0.78496, 2,    6254.13, -123.7,   0.78496, 3,    6254.13,  116.3,   0.78496
"SCN_CN15_9241_CEI109", 13.8, 1,    6065.92,   -4.5,   0.76134, 2,    6065.91, -124.5,   0.76134, 3,    6065.91,  115.5,   0.76134
"SCN_CN15_9204_CEI109", 13.8, 1,    6065.93,   -4.5,   0.76134, 2,    6065.92, -124.5,   0.76134, 3,    6065.92,  115.5,   0.76134
"SCN_CN15_9242_CEI109", 13.8, 1,    6065.91,   -4.5,   0.76134, 2,     6065.9, -124.5,   0.76134, 3,    6065.91,  115.5,   0.76134
"SCN_CN15_9243_CEI109", 13.8, 1,     6065.9,   -4.5,   0.76134, 2,    6065.89, -124.5,   0.76134, 3,     6065.9,  115.5,   0.76134
"SCN_CN15_9244_CEI109", 13.8, 1,    6065.89,   -4.5,   0.76134, 2,    6065.88, -124.5,   0.76133, 3,    6065.88,  115.5,   0.76133
"SCN_CN15_9245_CEI109", 13.8, 1,    6065.88,   -4.5,   0.76133, 2,    6065.87, -124.5,   0.76133, 3,    6065.87,  115.5,   0.76133
"SCN_CN15_9190_CEI109", 13.8, 1,    6064.89,   -4.5,   0.76121, 2,    6064.88, -124.5,   0.76121, 3,    6064.88,  115.5,   0.76121
"SCN_CN15_9191_CEI109", 13.8, 1,    6064.87,   -4.5,   0.76121, 2,    6064.86, -124.5,   0.76121, 3,    6064.86,  115.5,   0.76121
"SCN_CN15_9166_CEI109", 13.8, 1,    6064.84,   -4.5,    0.7612, 2,    6064.83, -124.5,    0.7612, 3,    6064.83,  115.5,    0.7612
"SCN_CN15_9167_CEI109", 13.8, 1,    6064.84,   -4.5,    0.7612, 2,    6064.83, -124.5,    0.7612, 3,    6064.83,  115.5,    0.7612
"SCN_CN15_9168_CEI109", 13.8, 1,    6064.83,   -4.5,    0.7612, 2,    6064.82, -124.5,    0.7612, 3,    6064.82,  115.5,    0.7612
"SCN_CN15_9169_CEI109", 13.8, 1,    6064.82,   -4.5,    0.7612, 2,    6064.81, -124.5,    0.7612, 3,    6064.81,  115.5,    0.7612
"SCN_CN15_9183_CEI109", 13.8, 1,    6064.81,   -4.5,    0.7612, 2,     6064.8, -124.5,    0.7612, 3,     6064.8,  115.5,    0.7612
"SCN_CN15_9330_CEI109", 13.8, 1,    6040.09,   -4.6,    0.7581, 2,    6040.08, -124.6,    0.7581, 3,    6040.08,  115.4,    0.7581
"SCN_CN15_9329_CEI109", 13.8, 1,    6040.56,   -4.6,   0.75816, 2,    6040.56, -124.6,   0.75816, 3,    6040.56,  115.4,   0.75816
"SCN_CN15_9328_CEI109", 13.8, 1,    6040.89,   -4.6,    0.7582, 2,    6040.88, -124.6,    0.7582, 3,    6040.89,  115.4,    0.7582
"SCN_CN15_9165_CEI068", 13.8, 1,    6417.11,   -3.3,   0.80542, 2,     6417.1, -123.3,   0.80542, 3,     6417.1,  116.7,   0.80542
"SCN_CN15_9166_CEI068", 13.8, 1,    6417.06,   -3.3,   0.80541, 2,    6417.05, -123.3,   0.80541, 3,    6417.05,  116.7,   0.80541
"SCN_CN15_9327_CEI109", 13.8, 1,    6041.47,   -4.6,   0.75827, 2,    6041.46, -124.6,   0.75827, 3,    6041.46,  115.4,   0.75827
"SCN_CN15_9399_CEI109", 13.8, 1,    6042.01,   -4.6,   0.75834, 2,       6042, -124.6,   0.75834, 3,       6042,  115.4,   0.75834
"SCN_CN15_9029_CEI160_ATV", 13.8, 1,    6041.97,   -4.6,   0.75833, 2,    6041.96, -124.6,   0.75833, 3,    6041.96,  115.4,   0.75833
"SCN_CN15_9057_CEI075", 13.8, 1,    6162.96,   -3.8,   0.77352, 2,    6162.95, -123.8,   0.77352, 3,    6162.95,  116.2,   0.77352
"SCN_CN15_9054_CEIRJ006_ATV", 13.8, 1,    6162.95,   -3.8,   0.77352, 2,    6162.94, -123.8,   0.77352, 3,    6162.94,  116.2,   0.77352
"SCN_CN15_9040_CEI77A_ATV", 13.8, 1,    7211.79,   -1.8,   0.90516, 2,    7211.79, -121.8,   0.90516, 3,    7211.79,  118.2,   0.90516
"SCN_CN15_9042_CEI77A_ATV", 13.8, 1,    7211.76,   -1.8,   0.90516, 2,    7211.76, -121.8,   0.90515, 3,    7211.76,  118.2,   0.90515
"SCN_CN15_9043_CEI77A_ATV", 13.8, 1,    7211.73,   -1.8,   0.90515, 2,    7211.73, -121.8,   0.90515, 3,    7211.73,  118.2,   0.90515
"SCN_CN15_9190_CEI77A_ATV", 13.8, 1,    7841.28,   -0.5,   0.98417, 2,    7841.27, -120.5,   0.98417, 3,    7841.27,  119.5,   0.98417
"SCN_CN15_9194_CEI77A_ATV", 13.8, 1,     7853.6,   -0.5,   0.98571, 2,     7853.6, -120.5,   0.98571, 3,     7853.6,  119.5,   0.98571
"SCN_CN15_9195_CEI77A_ATV", 13.8, 1,    7874.53,   -0.4,   0.98834, 2,    7874.53, -120.4,   0.98834, 3,    7874.53,  119.6,   0.98834
"SCN_CN15_9196_CEI77A_ATV", 13.8, 1,    7895.33,   -0.4,   0.99095, 2,    7895.33, -120.4,   0.99095, 3,    7895.33,  119.6,   0.99095
"SCN_CN15_9197_CEI77A_ATV", 13.8, 1,    7917.89,   -0.3,   0.99378, 2,    7917.89, -120.3,   0.99378, 3,    7917.89,  119.7,   0.99378
"SCN_CN15_9198_CEI77A_ATV", 13.8, 1,    7924.86,   -0.3,   0.99466, 2,    7924.86, -120.3,   0.99466, 3,    7924.86,  119.7,   0.99466
"SCN_CN15_9200_CEI77A_ATV", 13.8, 1,    7637.85,   -1.0,   0.95863, 2,    7637.85, -121.0,   0.95863, 3,    7637.85,  119.0,   0.95863
"SCN_CN15_9201_CEI77A_ATV", 13.8, 1,    7637.88,   -1.0,   0.95864, 2,    7637.88, -121.0,   0.95864, 3,    7637.88,  119.0,   0.95864
"SCN_CN15_9039_CEI076", 13.8, 1,     6534.8,   -3.1,   0.82019, 2,    6534.79, -123.1,   0.82019, 3,    6534.79,  116.9,   0.82019
"SCN_CN15_9041_CEI076", 13.8, 1,     6534.8,   -3.1,   0.82019, 2,    6534.79, -123.1,   0.82019, 3,    6534.79,  116.9,   0.82019
"SCN_CN15_9042_CEI076", 13.8, 1,     6534.8,   -3.1,   0.82019, 2,    6534.79, -123.1,   0.82019, 3,    6534.79,  116.9,   0.82019
"SCN_CN15_9044_CEI076", 13.8, 1,     6534.8,   -3.1,   0.82019, 2,    6534.79, -123.1,   0.82019, 3,    6534.79,  116.9,   0.82019
"SCN_CN15_9045_CEI076", 13.8, 1,     6534.8,   -3.1,   0.82019, 2,    6534.79, -123.1,   0.82019, 3,    6534.79,  116.9,   0.82019
"SCN_CN15_9057_CEI068", 13.8, 1,    6529.36,   -3.1,   0.81951, 2,    6529.35, -123.1,   0.81951, 3,    6529.35,  116.9,   0.81951
"SCN_CN15_9058_CEI068", 13.8, 1,    6529.36,   -3.1,   0.81951, 2,    6529.35, -123.1,    0.8195, 3,    6529.35,  116.9,    0.8195
"SCN_CN15_9236_CEI068", 13.8, 1,    6529.35,   -3.1,   0.81951, 2,    6529.35, -123.1,    0.8195, 3,    6529.35,  116.9,    0.8195
"SCN_CN15_9240_CEI068", 13.8, 1,    6529.35,   -3.1,    0.8195, 2,    6529.34, -123.1,    0.8195, 3,    6529.34,  116.9,    0.8195
"SCN_CN15_9063_CEI072", 13.8, 1,     7019.6,   -2.2,   0.88104, 2,     7019.6, -122.2,   0.88104, 3,     7019.6,  117.8,   0.88104
"SCN_CN15_CEI_FL_MT_37442", 13.8, 1,    7019.72,   -2.2,   0.88105, 2,    7019.72, -122.2,   0.88105, 3,    7019.72,  117.8,   0.88105
"SCN_CN15_9088_CEI072", 13.8, 1,    7019.72,   -2.2,   0.88105, 2,    7019.72, -122.2,   0.88105, 3,    7019.72,  117.8,   0.88105
"SCN_CN15_9089_CEI072", 13.8, 1,    7023.67,   -2.2,   0.88155, 2,    7023.67, -122.2,   0.88155, 3,    7023.67,  117.8,   0.88155
"SCN_CN15_9062_CEI072", 13.8, 1,    7014.74,   -2.2,   0.88043, 2,    7014.73, -122.2,   0.88043, 3,    7014.74,  117.8,   0.88043
"SCN_CN15_9061_CEI071", 13.8, 1,    6828.18,   -2.6,   0.85701, 2,    6828.17, -122.6,   0.85701, 3,    6828.17,  117.4,   0.85701
"SCN_CN15_9072_CEI071", 13.8, 1,    6828.14,   -2.6,   0.85701, 2,    6828.13, -122.6,   0.85701, 3,    6828.13,  117.4,   0.85701
"SCN_CN15_9073_CEI071", 13.8, 1,    6828.11,   -2.6,     0.857, 2,     6828.1, -122.6,     0.857, 3,     6828.1,  117.4,     0.857
"SCN_CN15_9075_CEI071", 13.8, 1,    6828.07,   -2.6,     0.857, 2,    6828.06, -122.6,     0.857, 3,    6828.06,  117.4,     0.857
"SCN_CN15_9078_CEI071", 13.8, 1,    6828.03,   -2.6,   0.85699, 2,    6828.03, -122.6,   0.85699, 3,    6828.03,  117.4,   0.85699
"SCN_CN15_9079_CEI071", 13.8, 1,       6828,   -2.6,   0.85699, 2,    6827.99, -122.6,   0.85699, 3,    6827.99,  117.4,   0.85699
"SCN_CN15_9080_CEI071", 13.8, 1,    6827.97,   -2.6,   0.85698, 2,    6827.96, -122.6,   0.85698, 3,    6827.97,  117.4,   0.85698
"SCN_CN15_9081_CEI071", 13.8, 1,    6827.93,   -2.6,   0.85698, 2,    6827.93, -122.6,   0.85698, 3,    6827.93,  117.4,   0.85698
"SCN_CN15_9082_CEI071", 13.8, 1,     6827.9,   -2.6,   0.85698, 2,    6827.89, -122.6,   0.85697, 3,    6827.89,  117.4,   0.85697
"SCN_CN15_9083_CEI071", 13.8, 1,    6827.87,   -2.6,   0.85697, 2,    6827.86, -122.6,   0.85697, 3,    6827.86,  117.4,   0.85697
"SCN_CN15_9084_CEI071", 13.8, 1,    6827.83,   -2.6,   0.85697, 2,    6827.82, -122.6,   0.85697, 3,    6827.82,  117.4,   0.85697
"SCN_CN15_9145_CEI220_ATV", 13.8, 1,    6166.68,   -4.1,   0.77399, 2,    6166.67, -124.1,   0.77398, 3,    6166.67,  115.9,   0.77398
"SCN_CN15_9146_CEI220_ATV", 13.8, 1,    6166.59,   -4.1,   0.77397, 2,    6166.58, -124.1,   0.77397, 3,    6166.59,  115.9,   0.77397
"SCN_CN15_9004_CEI220_ATV", 13.8, 1,    6253.97,   -3.7,   0.78494, 2,    6253.96, -123.7,   0.78494, 3,    6253.96,  116.3,   0.78494
"SCN_CN15_9005_CEI220_ATV", 13.8, 1,    6253.97,   -3.7,   0.78494, 2,    6253.96, -123.7,   0.78494, 3,    6253.96,  116.3,   0.78494
"SCN_CN15_9088_CEI201_ATV", 13.8, 1,     6246.4,   -3.7,   0.78399, 2,    6246.39, -123.7,   0.78399, 3,    6246.39,  116.3,   0.78399
"SCN_CN15_9089_CEI201_ATV", 13.8, 1,    6246.41,   -3.7,   0.78399, 2,     6246.4, -123.7,   0.78399, 3,     6246.4,  116.3,   0.78399
"SCN_CN15_9016_CEIRJ003", 13.8, 1,    6246.99,   -3.7,   0.78407, 2,    6246.98, -123.7,   0.78406, 3,    6246.98,  116.3,   0.78406
"SCN_CN15_9089_CEI201_ATV_S", 13.8, 1,    6246.41,   -3.7,   0.78399, 2,     6246.4, -123.7,   0.78399, 3,     6246.4,  116.3,   0.78399
"SCN_CN15_9123_CEI69B", 13.8, 1,    6245.56,   -3.7,   0.78389, 2,    6245.55, -123.7,   0.78388, 3,    6245.55,  116.3,   0.78388
"SCN_CN15_9121_CEI69B", 13.8, 1,    6243.65,   -3.7,   0.78365, 2,    6243.64, -123.7,   0.78365, 3,    6243.64,  116.3,   0.78365
"SCN_CN15_9119_CEI69B", 13.8, 1,    6241.32,   -3.7,   0.78335, 2,    6241.31, -123.7,   0.78335, 3,    6241.31,  116.3,   0.78335
"SCN_CN15_9276_CEI109", 13.8, 1,    6100.65,   -4.4,    0.7657, 2,    6100.64, -124.4,    0.7657, 3,    6100.64,  115.6,    0.7657
"SCN_CN15_9277_CEI109", 13.8, 1,    6098.76,   -4.4,   0.76546, 2,    6098.75, -124.4,   0.76546, 3,    6098.75,  115.6,   0.76546
"SCN_CN15_9118_CEI69B", 13.8, 1,    6239.13,   -3.7,   0.78308, 2,    6239.12, -123.7,   0.78308, 3,    6239.12,  116.3,   0.78308
"SCN_CN15_9114_CEI230_ATV", 13.8, 1,    6233.64,   -3.7,   0.78239, 2,    6233.63, -123.7,   0.78239, 3,    6233.63,  116.3,   0.78239
"SCN_CN15_9113_CEI230_ATV", 13.8, 1,    6229.64,   -3.7,   0.78189, 2,    6229.63, -123.7,   0.78189, 3,    6229.63,  116.3,   0.78189
"SCN_CN15_9112_CEI230_ATV", 13.8, 1,    6222.11,   -3.8,   0.78094, 2,     6222.1, -123.8,   0.78094, 3,     6222.1,  116.2,   0.78094
"SCN_CN15_9111_CEI230_ATV_S", 13.8, 1,    6221.48,   -3.8,   0.78086, 2,    6221.47, -123.8,   0.78086, 3,    6221.47,  116.2,   0.78086
"SCN_CN15_9110_CEI230_ATV", 13.8, 1,    6221.46,   -3.8,   0.78086, 2,    6221.45, -123.8,   0.78086, 3,    6221.45,  116.2,   0.78086
"SCN_CN15_9111_CEI230_ATV", 13.8, 1,    6221.48,   -3.8,   0.78086, 2,    6221.47, -123.8,   0.78086, 3,    6221.47,  116.2,   0.78086
"SCN_CN15_9109_CEI230_ATV", 13.8, 1,    6221.43,   -3.8,   0.78086, 2,    6221.42, -123.8,   0.78086, 3,    6221.42,  116.2,   0.78086
"SCN_CN15_9108_CEI230_ATV", 13.8, 1,    6221.41,   -3.8,   0.78086, 2,     6221.4, -123.8,   0.78085, 3,    6221.41,  116.2,   0.78085
"SCN_CN15_9107_CEI230_ATV", 13.8, 1,     6221.4,   -3.8,   0.78085, 2,    6221.39, -123.8,   0.78085, 3,    6221.39,  116.2,   0.78085
"SCN_CN15_9106_CEI230_ATV", 13.8, 1,    6221.39,   -3.8,   0.78085, 2,    6221.38, -123.8,   0.78085, 3,    6221.38,  116.2,   0.78085
"SCN_CN15_9278_CEI109", 13.8, 1,    6097.08,   -4.4,   0.76525, 2,    6097.07, -124.4,   0.76525, 3,    6097.07,  115.6,   0.76525
"SCN_CN15_9104_CEI230_ATV", 13.8, 1,    6221.38,   -3.8,   0.78085, 2,    6221.37, -123.8,   0.78085, 3,    6221.37,  116.2,   0.78085
"SCN_CN15_9105_CEI230_ATV", 13.8, 1,    6221.36,   -3.8,   0.78085, 2,    6221.35, -123.8,   0.78085, 3,    6221.35,  116.2,   0.78085
"SCN_CN15_9103_CEI230_ATV", 13.8, 1,    6221.35,   -3.8,   0.78085, 2,    6221.34, -123.8,   0.78085, 3,    6221.34,  116.2,   0.78085
"SCN_CN15_9102_CEI230_ATV", 13.8, 1,    6221.34,   -3.8,   0.78085, 2,    6221.33, -123.8,   0.78084, 3,    6221.33,  116.2,   0.78084
"SCN_CN15_9100_CEI230_ATV", 13.8, 1,    6221.33,   -3.8,   0.78084, 2,    6221.32, -123.8,   0.78084, 3,    6221.32,  116.2,   0.78084
"SCN_CN15_9099_CEI230_ATV", 13.8, 1,    6221.31,   -3.8,   0.78084, 2,     6221.3, -123.8,   0.78084, 3,    6221.31,  116.2,   0.78084
"SCN_CN15_9098_CEI230_ATV", 13.8, 1,     6221.3,   -3.8,   0.78084, 2,     6221.3, -123.8,   0.78084, 3,     6221.3,  116.2,   0.78084
"SCN_CN15_9097_CEI230_ATV", 13.8, 1,    6221.29,   -3.8,   0.78084, 2,    6221.28, -123.8,   0.78084, 3,    6221.28,  116.2,   0.78084
"SCN_CN15_9096_CEI230_ATV", 13.8, 1,    6221.28,   -3.8,   0.78084, 2,    6221.27, -123.8,   0.78084, 3,    6221.27,  116.2,   0.78084
"SCN_CN15_9094_CEI230_ATV", 13.8, 1,    6221.27,   -3.8,   0.78084, 2,    6221.26, -123.8,   0.78084, 3,    6221.26,  116.2,   0.78084
"SCN_CN15_9281_CEI109", 13.8, 1,    6095.84,   -4.4,   0.76509, 2,    6095.83, -124.4,   0.76509, 3,    6095.83,  115.6,   0.76509
"SCN_CN15_9095_CEI230_ATV", 13.8, 1,    6221.27,   -3.8,   0.78084, 2,    6221.26, -123.8,   0.78084, 3,    6221.26,  116.2,   0.78084
"SCN_CN15_9120_CEI230_ATV", 13.8, 1,    6213.71,   -3.8,   0.77989, 2,     6213.7, -123.8,   0.77989, 3,     6213.7,  116.2,   0.77989
"SCN_CN15_9115_CEI230_ATV", 13.8, 1,    6213.58,   -3.8,   0.77987, 2,    6213.57, -123.8,   0.77987, 3,    6213.57,  116.2,   0.77987
"SCN_CN15_9119_CEI230_ATV", 13.8, 1,    6206.15,   -3.8,   0.77894, 2,    6206.14, -123.8,   0.77894, 3,    6206.14,  116.2,   0.77894
"SCN_CN15_9331_CEI109", 13.8, 1,    6039.54,   -4.6,   0.75803, 2,    6039.53, -124.6,   0.75803, 3,    6039.53,  115.4,   0.75803
"SCN_CN15_9332_CEI109", 13.8, 1,    6039.23,   -4.6,   0.75799, 2,    6039.22, -124.6,   0.75799, 3,    6039.22,  115.4,   0.75799
"SCN_CN15_9118_CEI230_ATV", 13.8, 1,     6198.7,   -3.8,     0.778, 2,    6198.69, -123.8,     0.778, 3,    6198.69,  116.2,     0.778
"SCN_CN15_9117_CEI230_ATV", 13.8, 1,    6190.96,   -3.8,   0.77703, 2,    6190.95, -123.8,   0.77703, 3,    6190.95,  116.2,   0.77703
"SCN_CN15_9116_CEI230_ATV", 13.8, 1,    6183.63,   -3.8,   0.77611, 2,    6183.62, -123.8,   0.77611, 3,    6183.62,  116.2,   0.77611
"SCN_CN15_9014_CEIRJ003", 13.8, 1,    6176.59,   -3.8,   0.77523, 2,    6176.58, -123.8,   0.77523, 3,    6176.58,  116.2,   0.77523
"SCN_CN15_9002_CEI075", 13.8, 1,     6175.7,   -3.8,   0.77512, 2,    6175.69, -123.8,   0.77512, 3,    6175.69,  116.2,   0.77512
"SCN_CN15_9003_CEI075", 13.8, 1,    6174.77,   -3.8,     0.775, 2,    6174.76, -123.8,     0.775, 3,    6174.76,  116.2,     0.775
"SCN_CN15_9282_CEI109", 13.8, 1,    6094.66,   -4.4,   0.76495, 2,    6094.65, -124.4,   0.76495, 3,    6094.65,  115.6,   0.76495
"SCN_CN15_9004_CEI075", 13.8, 1,    6173.72,   -3.8,   0.77487, 2,    6173.71, -123.8,   0.77487, 3,    6173.71,  116.2,   0.77487
"SCN_CN15_9052_CEIRJ006_ATV", 13.8, 1,    6174.75,   -3.8,     0.775, 2,    6174.74, -123.8,     0.775, 3,    6174.74,  116.2,     0.775
"SCN_CN15_9005_CEI075", 13.8, 1,    6172.64,   -3.8,   0.77473, 2,    6172.63, -123.8,   0.77473, 3,    6172.63,  116.2,   0.77473
"SCN_CN15_9006_CEI075", 13.8, 1,    6171.33,   -3.8,   0.77457, 2,    6171.32, -123.8,   0.77457, 3,    6171.32,  116.2,   0.77457
"SCN_CN15_9007_CEI075", 13.8, 1,    6170.34,   -3.8,   0.77445, 2,    6170.33, -123.8,   0.77444, 3,    6170.33,  116.2,   0.77444
"SCN_CN15_9008_CEI075", 13.8, 1,     6169.1,   -3.8,   0.77429, 2,    6169.09, -123.8,   0.77429, 3,    6169.09,  116.2,   0.77429
"SCN_CN15_9009_CEI075", 13.8, 1,    6167.88,   -3.8,   0.77414, 2,    6167.87, -123.8,   0.77413, 3,    6167.87,  116.2,   0.77413
"SCN_CN15_9169_CEI230_ATV", 13.8, 1,    6167.87,   -3.8,   0.77413, 2,    6167.86, -123.8,   0.77413, 3,    6167.86,  116.2,   0.77413
"SCN_CN15_9010_CEI075", 13.8, 1,    6167.69,   -3.8,   0.77411, 2,    6167.68, -123.8,   0.77411, 3,    6167.68,  116.2,   0.77411
"SCN_CN15_9011_CEI075", 13.8, 1,     6167.5,   -3.8,   0.77409, 2,    6167.49, -123.8,   0.77409, 3,    6167.49,  116.2,   0.77409
"SCN_CN15_9012_CEI075", 13.8, 1,    6167.31,   -3.8,   0.77406, 2,     6167.3, -123.8,   0.77406, 3,     6167.3,  116.2,   0.77406
"SCN_CN15_9283_CEI109", 13.8, 1,    6092.87,   -4.4,   0.76472, 2,    6092.86, -124.4,   0.76472, 3,    6092.87,  115.6,   0.76472
"SCN_CN15_9013_CEI075", 13.8, 1,    6167.04,   -3.8,   0.77403, 2,    6167.03, -123.8,   0.77403, 3,    6167.03,  116.2,   0.77403
"SCN_CN15_9014_CEI075", 13.8, 1,    6166.78,   -3.8,     0.774, 2,    6166.77, -123.8,     0.774, 3,    6166.77,  116.2,     0.774
"SCN_CN15_9015_CEI075", 13.8, 1,    6166.53,   -3.8,   0.77397, 2,    6166.52, -123.8,   0.77397, 3,    6166.52,  116.2,   0.77397
"SCN_CN15_9016_CEI075", 13.8, 1,    6166.27,   -3.8,   0.77393, 2,    6166.26, -123.8,   0.77393, 3,    6166.26,  116.2,   0.77393
"SCN_CN15_9017_CEI075", 13.8, 1,    6166.02,   -3.8,    0.7739, 2,    6166.01, -123.8,    0.7739, 3,    6166.01,  116.2,    0.7739
"SCN_CN15_9018_CEI075", 13.8, 1,    6165.76,   -3.8,   0.77387, 2,    6165.75, -123.8,   0.77387, 3,    6165.75,  116.2,   0.77387
"SCN_CN15_9019_CEI075", 13.8, 1,    6165.63,   -3.8,   0.77385, 2,    6165.62, -123.8,   0.77385, 3,    6165.62,  116.2,   0.77385
"SCN_CN15_9020_CEI075", 13.8, 1,     6165.5,   -3.8,   0.77384, 2,    6165.49, -123.8,   0.77384, 3,    6165.49,  116.2,   0.77384
"SCN_CN15_9022_CEI075", 13.8, 1,    6165.27,   -3.8,   0.77381, 2,    6165.26, -123.8,   0.77381, 3,    6165.26,  116.2,   0.77381
"SCN_CN15_9023_CEI075", 13.8, 1,    6165.06,   -3.8,   0.77378, 2,    6165.05, -123.8,   0.77378, 3,    6165.05,  116.2,   0.77378
"SCN_CN15_9284_CEI109", 13.8, 1,    6091.48,   -4.4,   0.76455, 2,    6091.47, -124.4,   0.76455, 3,    6091.47,  115.6,   0.76455
"SCN_CN15_9024_CEI075", 13.8, 1,    6164.81,   -3.8,   0.77375, 2,     6164.8, -123.8,   0.77375, 3,     6164.8,  116.2,   0.77375
"SCN_CN15_9025_CEI075", 13.8, 1,    6164.58,   -3.8,   0.77372, 2,    6164.57, -123.8,   0.77372, 3,    6164.57,  116.2,   0.77372
"SCN_CN15_9072_CEI230_ATV", 13.8, 1,    6164.56,   -3.8,   0.77372, 2,    6164.55, -123.8,   0.77372, 3,    6164.55,  116.2,   0.77372
"SCN_CN15_9028_CEI075", 13.8, 1,    6164.06,   -3.8,   0.77366, 2,    6164.05, -123.8,   0.77366, 3,    6164.05,  116.2,   0.77366
"SCN_CN15_9029_CEI075", 13.8, 1,    6163.94,   -3.8,   0.77364, 2,    6163.93, -123.8,   0.77364, 3,    6163.93,  116.2,   0.77364
"SCN_CN15_9027_CEI075", 13.8, 1,    6164.18,   -3.8,   0.77367, 2,    6164.17, -123.8,   0.77367, 3,    6164.17,  116.2,   0.77367
"SCN_CN15_9026_CEI075", 13.8, 1,    6164.38,   -3.8,    0.7737, 2,    6164.37, -123.8,    0.7737, 3,    6164.37,  116.2,    0.7737
"SCN_CN15_9030_CEI075", 13.8, 1,    6163.89,   -3.8,   0.77364, 2,    6163.88, -123.8,   0.77363, 3,    6163.88,  116.2,   0.77363
"SCN_CN15_9074_CEI230_ATV", 13.8, 1,    6163.74,   -3.8,   0.77362, 2,    6163.73, -123.8,   0.77362, 3,    6163.73,  116.2,   0.77362
"SCN_CN15_9075_CEI230_ATV", 13.8, 1,    6163.65,   -3.8,    0.7736, 2,    6163.64, -123.8,    0.7736, 3,    6163.64,  116.2,    0.7736
"SCN_CN15_9292_CEI109_S", 13.8, 1,    6089.41,   -4.4,   0.76429, 2,     6089.4, -124.4,   0.76429, 3,     6089.4,  115.6,   0.76429
"SCN_CN15_9076_CEI230_ATV_S", 13.8, 1,    6163.59,   -3.8,    0.7736, 2,    6163.58, -123.8,    0.7736, 3,    6163.57,  116.2,    0.7736
"SCN_CN15_9076_CEI230_ATV", 13.8, 1,    6163.59,   -3.8,    0.7736, 2,    6163.58, -123.8,    0.7736, 3,    6163.57,  116.2,    0.7736
"SCN_CN15_9079_CEI230_ATV", 13.8, 1,    6163.51,   -3.8,   0.77359, 2,     6163.5, -123.8,   0.77359, 3,     6163.5,  116.2,   0.77359
"SCN_CN15_9078_CEI230_ATV", 13.8, 1,    6163.44,   -3.8,   0.77358, 2,    6163.43, -123.8,   0.77358, 3,    6163.43,  116.2,   0.77358
"SCN_CN15_9077_CEI230_ATV", 13.8, 1,    6163.49,   -3.8,   0.77359, 2,    6163.48, -123.8,   0.77358, 3,    6163.48,  116.2,   0.77358
"SCN_CN15_9080_CEI230_ATV", 13.8, 1,    6163.39,   -3.8,   0.77357, 2,    6163.38, -123.8,   0.77357, 3,    6163.38,  116.2,   0.77357
"SCN_CN15_9081_CEI230_ATV", 13.8, 1,    6163.31,   -3.8,   0.77356, 2,     6163.3, -123.8,   0.77356, 3,     6163.3,  116.2,   0.77356
"SCN_CN15_9082_CEI230_ATV", 13.8, 1,    6163.31,   -3.8,   0.77356, 2,     6163.3, -123.8,   0.77356, 3,     6163.3,  116.2,   0.77356
"SCN_CN15_9084_CEI230_ATV", 13.8, 1,    6163.28,   -3.8,   0.77356, 2,    6163.27, -123.8,   0.77356, 3,    6163.27,  116.2,   0.77356
"SCN_CN15_9085_CEI230_ATV", 13.8, 1,    6163.24,   -3.8,   0.77355, 2,    6163.23, -123.8,   0.77355, 3,    6163.23,  116.2,   0.77355
"SCN_CN15_9086_CEI230_ATV", 13.8, 1,    6163.21,   -3.8,   0.77355, 2,     6163.2, -123.8,   0.77355, 3,     6163.2,  116.2,   0.77355
"SCN_CN15_9292_CEI109", 13.8, 1,    6089.41,   -4.4,   0.76429, 2,     6089.4, -124.4,   0.76429, 3,     6089.4,  115.6,   0.76429
"SCN_CN15_9423_CEI109", 13.8, 1,    6089.34,   -4.4,   0.76428, 2,    6089.33, -124.4,   0.76428, 3,    6089.34,  115.6,   0.76428
"SCN_CN15_9087_CEI230_ATV", 13.8, 1,    6163.18,   -3.8,   0.77355, 2,    6163.17, -123.8,   0.77355, 3,    6163.17,  116.2,   0.77355
"SCN_CN15_9083_CEI230_ATV", 13.8, 1,    6163.28,   -3.8,   0.77356, 2,    6163.27, -123.8,   0.77356, 3,    6163.27,  116.2,   0.77356
"SCN_CN15_9088_CEI230_ATV", 13.8, 1,    6163.25,   -3.8,   0.77356, 2,    6163.24, -123.8,   0.77355, 3,    6163.24,  116.2,   0.77355
"SCN_CN15_9090_CEI230_ATV", 13.8, 1,    6163.23,   -3.8,   0.77355, 2,    6163.22, -123.8,   0.77355, 3,    6163.21,  116.2,   0.77355
"SCN_CN15_9084_CEI148_ATV", 13.8, 1,    6025.03,   -4.7,   0.75621, 2,    6025.02, -124.7,   0.75621, 3,    6025.02,  115.3,   0.75621
"SCN_CN15_9083_CEI148_ATV", 13.8, 1,    6025.52,   -4.7,   0.75627, 2,    6025.51, -124.7,   0.75627, 3,    6025.51,  115.3,   0.75627
"SCN_CN15_9086_CEI148_ATV", 13.8, 1,    6024.64,   -4.7,   0.75616, 2,    6024.63, -124.7,   0.75616, 3,    6024.63,  115.3,   0.75616
"SCN_CN15_9100_CEI201_ATV", 13.8, 1,    6234.65,   -3.8,   0.78252, 2,    6234.64, -123.8,   0.78252, 3,    6234.64,  116.2,   0.78252
"SCN_CN15_9102_CEI201_ATV", 13.8, 1,    6234.69,   -3.8,   0.78252, 2,    6234.68, -123.8,   0.78252, 3,    6234.68,  116.2,   0.78252
"SCN_CN15_9087_CEI148_ATV", 13.8, 1,    6023.84,   -4.7,   0.75606, 2,    6023.83, -124.7,   0.75606, 3,    6023.83,  115.3,   0.75606
"SCN_CN15_9088_CEI148_ATV", 13.8, 1,     6023.8,   -4.7,   0.75605, 2,    6023.79, -124.7,   0.75605, 3,     6023.8,  115.3,   0.75605
"SCN_CN15_9090_CEI148_ATV", 13.8, 1,    6023.73,   -4.7,   0.75604, 2,    6023.72, -124.7,   0.75604, 3,    6023.72,  115.3,   0.75604
"SCN_CN15_9424_CEI109", 13.8, 1,    6089.24,   -4.4,   0.76427, 2,    6089.23, -124.4,   0.76427, 3,    6089.24,  115.6,   0.76427
"SCN_CN15_9034_CEI148A_ATV", 13.8, 1,    6023.31,   -4.7,   0.75599, 2,     6023.3, -124.7,   0.75599, 3,    6023.31,  115.3,   0.75599
"SCN_CN15_9033_CEI148A_ATV", 13.8, 1,    6022.84,   -4.7,   0.75593, 2,    6022.83, -124.7,   0.75593, 3,    6022.83,  115.3,   0.75593
"SCN_CN15_9035_CEI148A_ATV", 13.8, 1,    6022.83,   -4.7,   0.75593, 2,    6022.82, -124.7,   0.75593, 3,    6022.82,  115.3,   0.75593
"SCN_CN15_9031_CEI148A_ATV", 13.8, 1,    6022.35,   -4.7,   0.75587, 2,    6022.34, -124.7,   0.75587, 3,    6022.34,  115.3,   0.75587
"SCN_CN15_9030_CEI148A_ATV", 13.8, 1,     6021.9,   -4.7,   0.75581, 2,    6021.89, -124.7,   0.75581, 3,    6021.89,  115.3,   0.75581
"SCN_CN15_9029_CEI148A_ATV_S", 13.8, 1,    6021.85,   -4.7,   0.75581, 2,    6021.84, -124.7,   0.75581, 3,    6021.84,  115.3,   0.75581
"SCN_CN15_9028_CEI148A_ATV", 13.8, 1,    6021.83,   -4.7,   0.75581, 2,    6021.82, -124.7,    0.7558, 3,    6021.82,  115.3,    0.7558
"SCN_CN15_9029_CEI148A_ATV", 13.8, 1,    6021.85,   -4.7,   0.75581, 2,    6021.84, -124.7,   0.75581, 3,    6021.84,  115.3,   0.75581
"SCN_CN15_9032_CEI148A_ATV", 13.8, 1,    6021.83,   -4.7,   0.75581, 2,    6021.82, -124.7,    0.7558, 3,    6021.82,  115.3,    0.7558
"SCN_CN15_9078_CEI201_ATV", 13.8, 1,     6021.8,   -4.7,    0.7558, 2,    6021.79, -124.7,    0.7558, 3,    6021.79,  115.3,    0.7558
"SCN_CN15_9075_CEI201_ATV", 13.8, 1,    6021.77,   -4.7,    0.7558, 2,    6021.76, -124.7,    0.7558, 3,    6021.76,  115.3,    0.7558
"SCN_CN15_9425_CEI109", 13.8, 1,    6089.15,   -4.4,   0.76426, 2,    6089.14, -124.4,   0.76425, 3,    6089.14,  115.6,   0.76425
"SCN_CN15_9025_CEI148A_ATV", 13.8, 1,    6021.45,   -4.7,   0.75576, 2,    6021.44, -124.7,   0.75576, 3,    6021.45,  115.3,   0.75576
"SCN_CN15_9023_CEI148A_ATV_S", 13.8, 1,     6020.6,   -4.7,   0.75565, 2,    6020.59, -124.7,   0.75565, 3,    6020.59,  115.3,   0.75565
"SCN_CN15_9028_CEI69A", 13.8, 1,    6020.59,   -4.7,   0.75565, 2,    6020.57, -124.7,   0.75565, 3,    6020.58,  115.3,   0.75565
"SCN_CN15_9023_CEI148A_ATV", 13.8, 1,     6020.6,   -4.7,   0.75565, 2,    6020.59, -124.7,   0.75565, 3,    6020.59,  115.3,   0.75565
"SCN_CN15_9022_CEI148A_ATV", 13.8, 1,    6020.56,   -4.7,   0.75565, 2,    6020.55, -124.7,   0.75565, 3,    6020.55,  115.3,   0.75565
"SCN_CN15_9021_CEI148A_ATV", 13.8, 1,    6020.52,   -4.7,   0.75564, 2,    6020.51, -124.7,   0.75564, 3,    6020.51,  115.3,   0.75564
"SCN_CN15_9020_CEI148A_ATV_S", 13.8, 1,    6020.49,   -4.7,   0.75564, 2,    6020.48, -124.7,   0.75564, 3,    6020.48,  115.3,   0.75564
"SCN_CN15_9020_CEI148A_ATV", 13.8, 1,    6020.49,   -4.7,   0.75564, 2,    6020.48, -124.7,   0.75564, 3,    6020.48,  115.3,   0.75564
"SCN_CN15_9019_CEI148A_ATV", 13.8, 1,    6020.48,   -4.7,   0.75564, 2,    6020.47, -124.7,   0.75564, 3,    6020.47,  115.3,   0.75564
"SCN_CN15_9001_CEI148A_ATV", 13.8, 1,    6018.09,   -4.7,   0.75534, 2,    6018.08, -124.7,   0.75533, 3,    6018.08,  115.3,   0.75534
"SCN_CN15_9002_CEI148A_ATV", 13.8, 1,    6018.14,   -4.7,   0.75534, 2,    6018.13, -124.7,   0.75534, 3,    6018.13,  115.3,   0.75534
"SCN_CN15_9003_CEI148A_ATV", 13.8, 1,    6018.16,   -4.7,   0.75534, 2,    6018.15, -124.7,   0.75534, 3,    6018.15,  115.3,   0.75534
"SCN_CN15_9005_CEI148A_ATV", 13.8, 1,    6018.17,   -4.7,   0.75535, 2,    6018.16, -124.7,   0.75535, 3,    6018.17,  115.3,   0.75535
"SCN_CN15_9426_CEI109", 13.8, 1,    6089.07,   -4.4,   0.76425, 2,    6089.06, -124.4,   0.76424, 3,    6089.07,  115.6,   0.76424
"SCN_CN15_9004_CEI148A_ATV", 13.8, 1,     6018.2,   -4.7,   0.75535, 2,    6018.19, -124.7,   0.75535, 3,    6018.19,  115.3,   0.75535
"SCN_CN15_9143_CEI220_ATV", 13.8, 1,     6166.8,   -4.1,     0.774, 2,    6166.79, -124.1,     0.774, 3,    6166.79,  115.9,     0.774
"SCN_CN15_9144_CEI220_ATV", 13.8, 1,    6166.74,   -4.1,   0.77399, 2,    6166.73, -124.1,   0.77399, 3,    6166.73,  115.9,   0.77399
"SCN_CN15_9006_CEI148A_ATV", 13.8, 1,    6018.24,   -4.7,   0.75536, 2,    6018.23, -124.7,   0.75535, 3,    6018.23,  115.3,   0.75535
"SCN_CN15_9007_CEI148A_ATV", 13.8, 1,    6018.29,   -4.7,   0.75536, 2,    6018.28, -124.7,   0.75536, 3,    6018.28,  115.3,   0.75536
"SCN_CN15_9008_CEI148A_ATV", 13.8, 1,    6018.37,   -4.7,   0.75537, 2,    6018.36, -124.7,   0.75537, 3,    6018.37,  115.3,   0.75537
"SCN_CN15_9010_CEI148A_ATV", 13.8, 1,    6018.51,   -4.7,   0.75539, 2,     6018.5, -124.7,   0.75539, 3,     6018.5,  115.3,   0.75539
"SCN_CN15_9009_CEI148A_ATV", 13.8, 1,    6018.37,   -4.7,   0.75537, 2,    6018.36, -124.7,   0.75537, 3,    6018.36,  115.3,   0.75537
"SCN_CN15_9011_CEI148A_ATV", 13.8, 1,    6018.59,   -4.7,    0.7554, 2,    6018.58, -124.7,    0.7554, 3,    6018.59,  115.3,    0.7554
"SCN_CN15_9012_CEI148A_ATV", 13.8, 1,    6018.67,   -4.7,   0.75541, 2,    6018.66, -124.7,   0.75541, 3,    6018.66,  115.3,   0.75541
"SCN_CN15_9013_CEI148A_ATV", 13.8, 1,     6018.8,   -4.7,   0.75543, 2,    6018.79, -124.7,   0.75542, 3,    6018.79,  115.3,   0.75542
"SCN_CN15_9014_CEI148A_ATV", 13.8, 1,    6018.97,   -4.7,   0.75545, 2,    6018.96, -124.7,   0.75545, 3,    6018.96,  115.3,   0.75545
"SCN_CN15_9015_CEI148A_ATV", 13.8, 1,    6019.15,   -4.7,   0.75547, 2,    6019.14, -124.7,   0.75547, 3,    6019.14,  115.3,   0.75547
"SCN_CN15_9427_CEI109", 13.8, 1,    6088.98,   -4.4,   0.76423, 2,    6088.97, -124.4,   0.76423, 3,    6088.98,  115.6,   0.76423
"SCN_CN15_9016_CEI148A_ATV", 13.8, 1,    6019.32,   -4.7,   0.75549, 2,    6019.31, -124.7,   0.75549, 3,    6019.31,  115.3,   0.75549
"SCN_CN15_9017_CEI148A_ATV", 13.8, 1,     6019.4,   -4.7,    0.7555, 2,    6019.39, -124.7,    0.7555, 3,    6019.39,  115.3,    0.7555
"SCN_CN15_9018_CEI148A_ATV", 13.8, 1,     6019.5,   -4.7,   0.75551, 2,    6019.49, -124.7,   0.75551, 3,    6019.49,  115.3,   0.75551
"SCN_CN15_9020_CEI69A", 13.8, 1,    6019.76,   -4.7,   0.75555, 2,    6019.75, -124.7,   0.75554, 3,    6019.75,  115.3,   0.75554
"SCN_CN15_9018_CEI148A_ATV_S", 13.8, 1,     6019.5,   -4.7,   0.75551, 2,    6019.49, -124.7,   0.75551, 3,    6019.49,  115.3,   0.75551
"SCN_CN15_9019_CEI69A", 13.8, 1,    6019.67,   -4.7,   0.75553, 2,    6019.66, -124.7,   0.75553, 3,    6019.67,  115.3,   0.75553
"SCN_CN15_9018_CEI69A", 13.8, 1,     6019.6,   -4.7,   0.75553, 2,    6019.59, -124.7,   0.75552, 3,    6019.59,  115.3,   0.75552
"SCN_CN15_9017_CEI69A", 13.8, 1,    6019.54,   -4.7,   0.75552, 2,    6019.53, -124.7,   0.75552, 3,    6019.53,  115.3,   0.75552
"SCN_CN15_9016_CEI69A", 13.8, 1,    6019.53,   -4.7,   0.75552, 2,    6019.52, -124.7,   0.75552, 3,    6019.52,  115.3,   0.75552
"SCN_CN15_9015_CEI69A", 13.8, 1,    6019.53,   -4.7,   0.75552, 2,    6019.52, -124.7,   0.75552, 3,    6019.52,  115.3,   0.75552
"SCN_CN15_9428_CEI109", 13.8, 1,    6088.88,   -4.4,   0.76422, 2,    6088.87, -124.4,   0.76422, 3,    6088.88,  115.6,   0.76422
"SCN_CN15_9012_CEI69A_S", 13.8, 1,     6019.5,   -4.7,   0.75551, 2,    6019.49, -124.7,   0.75551, 3,    6019.49,  115.3,   0.75551
"SCN_CN15_9012_CEI69A", 13.8, 1,     6019.5,   -4.7,   0.75551, 2,    6019.49, -124.7,   0.75551, 3,    6019.49,  115.3,   0.75551
"SCN_CN15_9013_CEI69A", 13.8, 1,    6019.49,   -4.7,   0.75551, 2,    6019.47, -124.7,   0.75551, 3,    6019.48,  115.3,   0.75551
"SCN_CN15_9014_CEI69A", 13.8, 1,    6019.47,   -4.7,   0.75551, 2,    6019.46, -124.7,   0.75551, 3,    6019.46,  115.3,   0.75551
"SCN_CN15_9011_CEI69A", 13.8, 1,     6019.5,   -4.7,   0.75551, 2,    6019.49, -124.7,   0.75551, 3,    6019.49,  115.3,   0.75551
"SCN_CN15_9073_CEIRJ006_ATV", 13.8, 1,    6023.69,   -4.7,   0.75604, 2,    6023.68, -124.7,   0.75604, 3,    6023.68,  115.3,   0.75604
"SCN_CN15_9091_CEI148_ATV", 13.8, 1,    6023.68,   -4.7,   0.75604, 2,    6023.67, -124.7,   0.75604, 3,    6023.67,  115.3,   0.75604
"SCN_CN15_9092_CEI148_ATV", 13.8, 1,    6023.67,   -4.7,   0.75604, 2,    6023.66, -124.7,   0.75604, 3,    6023.66,  115.3,   0.75604
"SCN_CN15_9089_CEI148_ATV", 13.8, 1,    6023.66,   -4.7,   0.75604, 2,    6023.65, -124.7,   0.75603, 3,    6023.66,  115.3,   0.75603
"SCN_CN15_9042_CEI69A", 13.8, 1,    6023.75,   -4.7,   0.75605, 2,    6023.74, -124.7,   0.75605, 3,    6023.75,  115.3,   0.75605
"SCN_CN15_9100_CEI072", 13.8, 1,    7060.88,   -2.1,   0.88622, 2,    7060.87, -122.1,   0.88622, 3,    7060.87,  117.9,   0.88622
"SCN_CN15_9101_CEI072", 13.8, 1,     7060.8,   -2.1,   0.88621, 2,     7060.8, -122.1,   0.88621, 3,     7060.8,  117.9,   0.88621
"SCN_CN15_9102_CEI072", 13.8, 1,    7060.72,   -2.1,    0.8862, 2,    7060.72, -122.1,    0.8862, 3,    7060.72,  117.9,    0.8862
"SCN_CN15_9103_CEI072", 13.8, 1,    7060.64,   -2.1,   0.88619, 2,    7060.64, -122.1,   0.88619, 3,    7060.64,  117.9,   0.88619
"SCN_CN15_9104_CEI072", 13.8, 1,    7060.57,   -2.1,   0.88618, 2,    7060.56, -122.1,   0.88618, 3,    7060.56,  117.9,   0.88618
"SCN_CN15_9105_CEI072", 13.8, 1,    7060.48,   -2.1,   0.88617, 2,    7060.48, -122.1,   0.88617, 3,    7060.48,  117.9,   0.88617
"SCN_CN15_9491_CEI109", 13.8, 1,    6040.23,   -4.6,   0.75812, 2,    6040.22, -124.6,   0.75811, 3,    6040.22,  115.4,   0.75811
"SCN_CN15_9492_CEI109", 13.8, 1,    6040.13,   -4.6,    0.7581, 2,    6040.12, -124.6,    0.7581, 3,    6040.12,  115.4,    0.7581
"SCN_CN15_9106_CEI072", 13.8, 1,    7060.41,   -2.1,   0.88616, 2,    7060.41, -122.1,   0.88616, 3,    7060.41,  117.9,   0.88616
"SCN_CN15_9107_CEI072", 13.8, 1,    7060.26,   -2.1,   0.88614, 2,    7060.25, -122.1,   0.88614, 3,    7060.25,  117.9,   0.88614
"SCN_CN15_9108_CEI072", 13.8, 1,    7060.14,   -2.1,   0.88612, 2,    7060.13, -122.1,   0.88612, 3,    7060.13,  117.9,   0.88612
"SCN_CN15_9109_CEI072", 13.8, 1,    7060.07,   -2.1,   0.88612, 2,    7060.07, -122.1,   0.88612, 3,    7060.07,  117.9,   0.88612
"SCN_CN15_9110_CEI072", 13.8, 1,       7060,   -2.1,   0.88611, 2,       7060, -122.1,   0.88611, 3,       7060,  117.9,   0.88611
"SCN_CN15_9111_CEI072", 13.8, 1,    7059.92,   -2.1,    0.8861, 2,    7059.92, -122.1,    0.8861, 3,    7059.92,  117.9,    0.8861
"SCN_CN15_9112_CEI072", 13.8, 1,    7059.84,   -2.1,   0.88609, 2,    7059.84, -122.1,   0.88609, 3,    7059.84,  117.9,   0.88609
"SCN_CN15_9113_CEI072", 13.8, 1,    7059.76,   -2.1,   0.88608, 2,    7059.75, -122.1,   0.88608, 3,    7059.76,  117.9,   0.88608
...
"SCN_CN15_592-0899-22", 13.8, 1,     6345.2,   -3.5,   0.79639, 2,     6345.2, -123.5,   0.79639, 3,     6345.2,  116.5,   0.79639
"SCN_CN15_592-0899-22_S", 13.8, 1,     6345.2,   -3.5,   0.79639, 2,     6345.2, -123.5,   0.79639, 3,     6345.2,  116.5,   0.79639
"SCN_CN15_9013_CEI69B", 13.8, 1,    6359.28,   -3.5,   0.79816, 2,    6359.27, -123.5,   0.79816, 3,    6359.27,  116.5,   0.79816
"SCN_CN15_9015_CEI69B_S", 13.8, 1,    6353.37,   -3.5,   0.79742, 2,    6353.36, -123.5,   0.79742, 3,    6353.36,  116.5,   0.79742
"SCN_CN15_9012_CEI69B", 13.8, 1,    6366.38,   -3.4,   0.79905, 2,    6366.37, -123.4,   0.79905, 3,    6366.37,  116.6,   0.79905
"SCN_CN15_9011_CEI69B", 13.8, 1,    6373.34,   -3.4,   0.79992, 2,    6373.33, -123.4,   0.79992, 3,    6373.34,  116.6,   0.79992
"SCN_CN15_9162_CEI068", 13.8, 1,    6382.11,   -3.4,   0.80102, 2,     6382.1, -123.4,   0.80102, 3,     6382.1,  116.6,   0.80102
"SCN_CN15_9163_CEI068", 13.8, 1,    6391.29,   -3.4,   0.80218, 2,    6391.28, -123.4,   0.80218, 3,    6391.28,  116.6,   0.80218
"SCN_CN15_9164_CEI068", 13.8, 1,    6407.44,   -3.3,    0.8042, 2,    6407.43, -123.3,    0.8042, 3,    6407.43,  116.7,    0.8042
"SCN_CN15_9451_CEI109", 13.8, 1,    6088.19,   -4.4,   0.76413, 2,    6088.18, -124.4,   0.76413, 3,    6088.18,  115.6,   0.76413
"SCN_CN15_9169_CEI068", 13.8, 1,    6422.97,   -3.3,   0.80615, 2,    6422.97, -123.3,   0.80615, 3,    6422.97,  116.7,   0.80615
"SCN_CN15_9170_CEI068", 13.8, 1,    6423.11,   -3.3,   0.80617, 2,     6423.1, -123.3,   0.80617, 3,     6423.1,  116.7,   0.80617
"SCN_CN15_9170_CEI068_S", 13.8, 1,    6423.11,   -3.3,   0.80617, 2,     6423.1, -123.3,   0.80617, 3,     6423.1,  116.7,   0.80617
"SCN_CN15_9171_CEI068", 13.8, 1,     6439.8,   -3.3,   0.80827, 2,    6439.79, -123.3,   0.80826, 3,    6439.79,  116.7,   0.80826
"SCN_CN15_9172_CEI068", 13.8, 1,    6458.29,   -3.2,   0.81059, 2,    6458.28, -123.2,   0.81058, 3,    6458.28,  116.8,   0.81058
"SCN_CN15_9182_CEI068", 13.8, 1,    6479.76,   -3.2,   0.81328, 2,    6479.75, -123.2,   0.81328, 3,    6479.75,  116.8,   0.81328
"SCN_CN15_9181_CEI068", 13.8, 1,    6479.72,   -3.2,   0.81328, 2,    6479.72, -123.2,   0.81328, 3,    6479.72,  116.8,   0.81328
"SCN_CN15_9182_CEI068_S", 13.8, 1,    6479.76,   -3.2,   0.81328, 2,    6479.75, -123.2,   0.81328, 3,    6479.75,  116.8,   0.81328
"SCN_CN15_9183_CEI068", 13.8, 1,    6502.18,   -3.1,   0.81609, 2,    6502.17, -123.1,   0.81609, 3,    6502.18,  116.9,   0.81609
"SCN_CN15_9183_CEI068_S", 13.8, 1,    6502.18,   -3.1,   0.81609, 2,    6502.17, -123.1,   0.81609, 3,    6502.18,  116.9,   0.81609
"SCN_CN15_9186_CEI068", 13.8, 1,    6518.82,   -3.1,   0.81818, 2,    6518.81, -123.1,   0.81818, 3,    6518.81,  116.9,   0.81818
"SCN_CN15_9107_CEI068", 13.8, 1,    6529.11,   -3.1,   0.81947, 2,     6529.1, -123.1,   0.81947, 3,     6529.1,  116.9,   0.81947
"SCN_CN15_9450_CEI109", 13.8, 1,    6088.16,   -4.4,   0.76413, 2,    6088.15, -124.4,   0.76413, 3,    6088.15,  115.6,   0.76413
"SCN_CN15_9103_CEI068", 13.8, 1,    6540.43,   -3.0,   0.82089, 2,    6540.42, -123.0,   0.82089, 3,    6540.42,  117.0,   0.82089
"SCN_CN15_9092_CEI068", 13.8, 1,    6540.24,   -3.0,   0.82087, 2,    6540.23, -123.0,   0.82087, 3,    6540.23,  117.0,   0.82087
"SCN_CN15_9091_CEI068", 13.8, 1,    6540.04,   -3.0,   0.82085, 2,    6540.03, -123.0,   0.82084, 3,    6540.03,  117.0,   0.82085
"SCN_CN15_9090_CEI068", 13.8, 1,    6539.66,   -3.1,    0.8208, 2,    6539.65, -123.1,    0.8208, 3,    6539.65,  116.9,    0.8208
"SCN_CN15_9089_CEI068_S", 13.8, 1,    6539.43,   -3.1,   0.82077, 2,    6539.42, -123.1,   0.82077, 3,    6539.42,  116.9,   0.82077
"SCN_CN15_9086_CEI068", 13.8, 1,    6539.11,   -3.1,   0.82073, 2,    6539.11, -123.1,   0.82073, 3,    6539.11,  116.9,   0.82073
"SCN_CN15_9085_CEI068", 13.8, 1,    6538.72,   -3.1,   0.82068, 2,    6538.71, -123.1,   0.82068, 3,    6538.71,  116.9,   0.82068
"SCN_CN15_9086_CEI068_S", 13.8, 1,    6539.11,   -3.1,   0.82073, 2,    6539.11, -123.1,   0.82073, 3,    6539.11,  116.9,   0.82073
"SCN_CN15_9082_CEI068", 13.8, 1,    6538.26,   -3.1,   0.82062, 2,    6538.25, -123.1,   0.82062, 3,    6538.25,  116.9,   0.82062
"SCN_CN15_9081_CEI068", 13.8, 1,    6537.78,   -3.1,   0.82056, 2,    6537.77, -123.1,   0.82056, 3,    6537.77,  116.9,   0.82056
"SCN_CN15_9080_CEI068", 13.8, 1,    6537.31,   -3.1,    0.8205, 2,    6537.31, -123.1,    0.8205, 3,    6537.31,  116.9,    0.8205
"SCN_CN15_9026_CEI201_ATV", 13.8, 1,    6035.17,   -4.6,   0.75748, 2,    6035.16, -124.6,   0.75748, 3,    6035.16,  115.4,   0.75748
"SCN_CN15_9027_CEI201_ATV", 13.8, 1,    6035.36,   -4.6,    0.7575, 2,    6035.35, -124.6,    0.7575, 3,    6035.35,  115.4,    0.7575
"SCN_CN15_9449_CEI109", 13.8, 1,    6088.13,   -4.4,   0.76413, 2,    6088.12, -124.4,   0.76413, 3,    6088.12,  115.6,   0.76413
"SCN_CN15_9079_CEI068", 13.8, 1,    6536.85,   -3.1,   0.82045, 2,    6536.85, -123.1,   0.82045, 3,    6536.85,  116.9,   0.82045
"SCN_CN15_9078_CEI068", 13.8, 1,    6536.39,   -3.1,   0.82039, 2,    6536.39, -123.1,   0.82039, 3,    6536.39,  116.9,   0.82039
"SCN_CN15_9077_CEI068", 13.8, 1,    6535.93,   -3.1,   0.82033, 2,    6535.92, -123.1,   0.82033, 3,    6535.92,  116.9,   0.82033
"SCN_CN15_9076_CEI068", 13.8, 1,    6535.49,   -3.1,   0.82028, 2,    6535.49, -123.1,   0.82028, 3,    6535.49,  116.9,   0.82028
"SCN_CN15_9075_CEI068", 13.8, 1,    6535.06,   -3.1,   0.82022, 2,    6535.06, -123.1,   0.82022, 3,    6535.06,  116.9,   0.82022
"SCN_CN15_9074_CEI068", 13.8, 1,    6534.62,   -3.1,   0.82017, 2,    6534.62, -123.1,   0.82017, 3,    6534.62,  116.9,   0.82017
"SCN_CN15_9073_CEI068", 13.8, 1,    6534.17,   -3.1,   0.82011, 2,    6534.16, -123.1,   0.82011, 3,    6534.16,  116.9,   0.82011
"SCN_CN15_9072_CEI068", 13.8, 1,    6533.73,   -3.1,   0.82006, 2,    6533.73, -123.1,   0.82005, 3,    6533.73,  116.9,   0.82005
"SCN_CN15_9071_CEI068", 13.8, 1,    6533.31,   -3.1,      0.82, 2,     6533.3, -123.1,      0.82, 3,    6533.31,  116.9,      0.82
"SCN_CN15_9070_CEI068", 13.8, 1,       6533,   -3.1,   0.81996, 2,       6533, -123.1,   0.81996, 3,       6533,  116.9,   0.81996
...